95480
 OpenBabel09102013052D

  0  0  0     0  0            999 V3000
M  V30 BEGIN CTAB
M  V30 COUNTS 48 49 0 0 1
M  V30 BEGIN ATOM
M  V30 1 F 2 -4.0068 0 0
M  V30 2 N 8.1282 2.5173 0 0
M  V30 3 N 5.5301 -0.9827 0 0
M  V30 4 N 5.5301 -3.9827 0 0
M  V30 5 C 6.3961 0.5173 0 0
M  V30 6 C 7.2622 1.0173 0 0
M  V30 7 C 6.3961 -0.4827 0 0
M  V30 8 C 7.2622 2.0173 0 0
M  V30 9 C 7.2622 -0.9827 0 0
M  V30 10 C 8.1282 3.5173 0 0
M  V30 11 C 8.9942 2.0173 0 0
M  V30 12 C 5.5301 -1.9827 0 0
M  V30 13 C 4.6641 -2.4827 0 0
M  V30 14 C 8.9942 4.0173 0 0
M  V30 15 C 9.8602 2.5173 0 0
M  V30 16 C 6.3961 -2.4827 0 0
M  V30 17 C 4.6641 -3.4827 0 0
M  V30 18 C 3.7702 -1.948 0 0
M  V30 19 C 6.3961 -3.4827 0 0
M  V30 20 C 3.7702 -4.0173 0 0
M  V30 21 C 2.8641 -2.4618 0 0
M  V30 22 C 2.8641 -3.5035 0 0
M  V30 23 H 6.1841 1.0999 0 0
M  V30 24 H 5.7856 0.4097 0 0
M  V30 25 H 7.4742 0.4347 0 0
M  V30 26 H 7.8728 1.125 0 0
M  V30 27 H 5.8592 -0.1727 0 0
M  V30 28 H 7.0501 2.5999 0 0
M  V30 29 H 6.6516 1.9097 0 0
M  V30 30 H 4.9932 -0.6727 0 0
M  V30 31 H 6.9522 -1.5196 0 0
M  V30 32 H 7.7991 -1.2927 0 0
M  V30 33 H 7.5722 -0.4457 0 0
M  V30 34 H 7.9162 4.0999 0 0
M  V30 35 H 7.5176 3.4097 0 0
M  V30 36 H 8.5957 1.5424 0 0
M  V30 37 H 9.3928 1.5424 0 0
M  V30 38 H 9.3042 3.4804 0 0
M  V30 39 H 9.5312 4.3273 0 0
M  V30 40 H 8.6842 4.5543 0 0
M  V30 41 H 10.1703 1.9804 0 0
M  V30 42 H 10.3972 2.8273 0 0
M  V30 43 H 9.5502 3.0543 0 0
M  V30 44 H 6.9331 -2.1727 0 0
M  V30 45 H 3.7773 -1.328 0 0
M  V30 46 H 6.9331 -3.7927 0 0
M  V30 47 H 3.7773 -4.6373 0 0
M  V30 48 H 2.3284 -2.1498 0 0
M  V30 END ATOM
M  V30 BEGIN BOND
M  V30 1 1 1 22
M  V30 2 1 2 8
M  V30 3 1 2 10
M  V30 4 1 2 11
M  V30 5 1 3 7
M  V30 6 1 3 12
M  V30 7 1 3 30
M  V30 8 2 4 17
M  V30 9 1 4 19
M  V30 10 1 5 6
M  V30 11 1 5 7
M  V30 12 1 5 23
M  V30 13 1 5 24
M  V30 14 1 6 8
M  V30 15 1 6 25
M  V30 16 1 6 26
M  V30 17 1 7 9
M  V30 18 1 7 27
M  V30 19 1 8 28
M  V30 20 1 8 29
M  V30 21 1 9 31
M  V30 22 1 9 32
M  V30 23 1 9 33
M  V30 24 1 10 14
M  V30 25 1 10 34
M  V30 26 1 10 35
M  V30 27 1 11 15
M  V30 28 1 11 36
M  V30 29 1 11 37
M  V30 30 2 12 13
M  V30 31 1 12 16
M  V30 32 1 13 17
M  V30 33 1 13 18
M  V30 34 1 14 38
M  V30 35 1 14 39
M  V30 36 1 14 40
M  V30 37 1 15 41
M  V30 38 1 15 42
M  V30 39 1 15 43
M  V30 40 2 16 19
M  V30 41 1 16 44
M  V30 42 1 17 20
M  V30 43 2 18 21
M  V30 44 1 18 45
M  V30 45 1 19 46
M  V30 46 2 20 22
M  V30 47 1 20 47
M  V30 48 1 21 22
M  V30 49 1 21 48
M  V30 END BOND
M  V30 END CTAB
M  END
>  <PUBCHEM_COMPOUND_CID>
95480

>  <PUBCHEM_COMPOUND_CANONICALIZED>
1

>  <PUBCHEM_CACTVS_COMPLEXITY>
309

>  <PUBCHEM_CACTVS_HBOND_ACCEPTOR>
4

>  <PUBCHEM_CACTVS_HBOND_DONOR>
1

>  <PUBCHEM_CACTVS_ROTATABLE_BOND>
8

>  <PUBCHEM_CACTVS_SUBSKEYS>
AAADceB7AQAAAAAAAAAAAAAAAAAAAAAAAAA8QAAAAAAAAACx8AAAHQAQAAAADCjBHgw+wPPIEACgAzRnRACCgCAxAiAI2KA4ZJgIIOLA0dGEJAhgkADIyAcQgIAOAAAAAAACAAAAAAAAAAQAAAAAAAAAAA==

>  <PUBCHEM_IUPAC_OPENEYE_NAME>
N1,N1-diethyl-N4-(7-fluoro-4-quinolyl)pentane-1,4-diamine

>  <PUBCHEM_IUPAC_CAS_NAME>
N1,N1-diethyl-N4-(7-fluoro-4-quinolinyl)pentane-1,4-diamine

>  <PUBCHEM_IUPAC_NAME_MARKUP>
1-<I>N</I>,1-<I>N</I>-diethyl-4-<I>N</I>-(7-fluoroquinolin-4-yl)pentane-1,4-diamine

>  <PUBCHEM_IUPAC_NAME>
1-N,1-N-diethyl-4-N-(7-fluoroquinolin-4-yl)pentane-1,4-diamine

>  <PUBCHEM_IUPAC_SYSTEMATIC_NAME>
N1,N1-diethyl-N4-(7-fluoranylquinolin-4-yl)pentane-1,4-diamine

>  <PUBCHEM_IUPAC_TRADITIONAL_NAME>
diethyl-[4-[(7-fluoro-4-quinolyl)amino]pentyl]amine

>  <PUBCHEM_IUPAC_INCHI>
InChI=1S/C18H26FN3/c1-4-22(5-2)12-6-7-14(3)21-17-10-11-20-18-13-15(19)8-9-16(17)18/h8-11,13-14H,4-7,12H2,1-3H3,(H,20,21)

>  <PUBCHEM_IUPAC_INCHIKEY>
OTKWDNCXANVGKB-UHFFFAOYSA-N

>  <PUBCHEM_XLOGP3>
4.1

>  <PUBCHEM_EXACT_MASS>
303.211076

>  <PUBCHEM_MOLECULAR_FORMULA>
C18H26FN3

>  <PUBCHEM_MOLECULAR_WEIGHT>
303.4

>  <PUBCHEM_OPENEYE_CAN_SMILES>
CCN(CC)CCCC(C)NC1=C2C=CC(=CC2=NC=C1)F

>  <PUBCHEM_OPENEYE_ISO_SMILES>
CCN(CC)CCCC(C)NC1=C2C=CC(=CC2=NC=C1)F

>  <PUBCHEM_CACTVS_TPSA>
28.2

>  <PUBCHEM_MONOISOTOPIC_WEIGHT>
303.211076

>  <PUBCHEM_TOTAL_CHARGE>
0

>  <PUBCHEM_HEAVY_ATOM_COUNT>
22

>  <PUBCHEM_ATOM_DEF_STEREO_COUNT>
0

>  <PUBCHEM_ATOM_UDEF_STEREO_COUNT>
1

>  <PUBCHEM_BOND_DEF_STEREO_COUNT>
0

>  <PUBCHEM_BOND_UDEF_STEREO_COUNT>
0

>  <PUBCHEM_ISOTOPIC_ATOM_COUNT>
0

>  <PUBCHEM_COMPONENT_COUNT>
1

>  <PUBCHEM_CACTVS_TAUTO_COUNT>
-1

>  <PUBCHEM_COORDINATE_TYPE>
1
5
255

>  <PUBCHEM_BONDANNOTATIONS>
12  13  8
12  16  8
13  17  8
13  18  8
16  19  8
17  20  8
18  21  8
20  22  8
21  22  8
4  17  8
4  19  8
7  9  3

$$$$
